LTspice 24.1.10 for Windows
Circuit: C:\Users\LENOVO\Documents\LTspice\switching_capacitor_integrator\switching_capacitor_integrator.net
Start Time: Fri Nov 21 12:01:57 2025
solver = Normal
Maximum thread count: 16
tnom = 27
temp = 27
method = trap
WARNING: Node n004 is floating.
WARNING: Node n006 is floating.

.OP point found by inspection.
Total elapsed time: 0.093 seconds.

Files loaded:
C:\Users\LENOVO\Documents\LTspice\switching_capacitor_integrator\switching_capacitor_integrator.net
C:\Users\LENOVO\AppData\Local\LTspice\lib\cmp\standard.mos

